mcp_server/case118.m
function mpc = case118
%CASE118 Canonical IEEE 118 bus balanced case for transfer experiments.
% Converted without numeric changes from PYPOWER 5.1.19 pypower/case118.py.
% Upstream: https://github.com/rwl/PYPOWER/blob/v5.1.19/pypower/case118.py
% Source SHA256: 90c28f0d55324a6f11b6371c3fd8424b3c1bc18830699deaec207d7d72e50c25
% IEEE CDF conversion: 20-Sep-2004 by cdf2matp, rev. 1.11; baseKV added
% manually on 10-Mar-2006 from the PSAP file of the same UW archive.
% UW archive: 08/25/93, 100.0 MVA, 1961 W IEEE 118 Bus Test Case.
% Bus and branch row order, parallel circuits, taps, shunts, and costs
% are preserved. baseKV (138/161/345) and RATE_A=9900 are source data; two
% zero-tap branches join different baseKV (86-87 at 138/161 kV and 68-116
% at 345/138 kV). RATE_A is not validated equipment thermal-rating data.
%
% Copyright (c) 1996-2015, Power System Engineering Research Center (PSERC)
% and individual contributors (see AUTHORS file for details).
% All rights reserved.
% 
% Redistribution and use in source and binary forms, with or without
% modification, are permitted provided that the following conditions are
% met:
% 
% 1. Redistributions of source code must retain the above copyright
% notice, this list of conditions and the following disclaimer.
% 
% 2. Redistributions in binary form must reproduce the above copyright
% notice, this list of conditions and the following disclaimer in the
% documentation and/or other materials provided with the distribution.
% 
% 3. Neither the name of the copyright holder nor the names of its
% contributors may be used to endorse or promote products derived from
% this software without specific prior written permission.
% 
% THIS SOFTWARE IS PROVIDED BY THE COPYRIGHT HOLDERS AND CONTRIBUTORS "AS
% IS" AND ANY EXPRESS OR IMPLIED WARRANTIES, INCLUDING, BUT NOT LIMITED
% TO, THE IMPLIED WARRANTIES OF MERCHANTABILITY AND FITNESS FOR A
% PARTICULAR PURPOSE ARE DISCLAIMED. IN NO EVENT SHALL THE COPYRIGHT
% HOLDER OR CONTRIBUTORS BE LIABLE FOR ANY DIRECT, INDIRECT, INCIDENTAL,
% SPECIAL, EXEMPLARY, OR CONSEQUENTIAL DAMAGES (INCLUDING, BUT NOT LIMITED
% TO, PROCUREMENT OF SUBSTITUTE GOODS OR SERVICES; LOSS OF USE, DATA, OR
% PROFITS; OR BUSINESS INTERRUPTION) HOWEVER CAUSED AND ON ANY THEORY OF
% LIABILITY, WHETHER IN CONTRACT, STRICT LIABILITY, OR TORT (INCLUDING
% NEGLIGENCE OR OTHERWISE) ARISING IN ANY WAY OUT OF THE USE OF THIS
% SOFTWARE, EVEN IF ADVISED OF THE POSSIBILITY OF SUCH DAMAGE.
% 

mpc.version = '2';
mpc.baseMVA = 100;

mpc.bus = [
    1	2	51	27	0	0	1	0.95499999999999996	10.67	138	1	1.0600000000000001	0.93999999999999995;
    2	1	20	9	0	0	1	0.97099999999999997	11.220000000000001	138	1	1.0600000000000001	0.93999999999999995;
    3	1	39	10	0	0	1	0.96799999999999997	11.56	138	1	1.0600000000000001	0.93999999999999995;
    4	2	39	12	0	0	1	0.998	15.279999999999999	138	1	1.0600000000000001	0.93999999999999995;
    5	1	0	0	0	-40	1	1.002	15.73	138	1	1.0600000000000001	0.93999999999999995;
    6	2	52	22	0	0	1	0.98999999999999999	13	138	1	1.0600000000000001	0.93999999999999995;
    7	1	19	2	0	0	1	0.98899999999999999	12.56	138	1	1.0600000000000001	0.93999999999999995;
    8	2	28	0	0	0	1	1.0149999999999999	20.77	345	1	1.0600000000000001	0.93999999999999995;
    9	1	0	0	0	0	1	1.0429999999999999	28.02	345	1	1.0600000000000001	0.93999999999999995;
    10	2	0	0	0	0	1	1.05	35.609999999999999	345	1	1.0600000000000001	0.93999999999999995;
    11	1	70	23	0	0	1	0.98499999999999999	12.720000000000001	138	1	1.0600000000000001	0.93999999999999995;
    12	2	47	10	0	0	1	0.98999999999999999	12.199999999999999	138	1	1.0600000000000001	0.93999999999999995;
    13	1	34	16	0	0	1	0.96799999999999997	11.35	138	1	1.0600000000000001	0.93999999999999995;
    14	1	14	1	0	0	1	0.98399999999999999	11.5	138	1	1.0600000000000001	0.93999999999999995;
    15	2	90	30	0	0	1	0.96999999999999997	11.23	138	1	1.0600000000000001	0.93999999999999995;
    16	1	25	10	0	0	1	0.98399999999999999	11.91	138	1	1.0600000000000001	0.93999999999999995;
    17	1	11	3	0	0	1	0.995	13.74	138	1	1.0600000000000001	0.93999999999999995;
    18	2	60	34	0	0	1	0.97299999999999998	11.529999999999999	138	1	1.0600000000000001	0.93999999999999995;
    19	2	45	25	0	0	1	0.96299999999999997	11.050000000000001	138	1	1.0600000000000001	0.93999999999999995;
    20	1	18	3	0	0	1	0.95799999999999996	11.93	138	1	1.0600000000000001	0.93999999999999995;
    21	1	14	8	0	0	1	0.95899999999999996	13.52	138	1	1.0600000000000001	0.93999999999999995;
    22	1	10	5	0	0	1	0.96999999999999997	16.079999999999998	138	1	1.0600000000000001	0.93999999999999995;
    23	1	7	3	0	0	1	1	21	138	1	1.0600000000000001	0.93999999999999995;
    24	2	13	0	0	0	1	0.99199999999999999	20.890000000000001	138	1	1.0600000000000001	0.93999999999999995;
    25	2	0	0	0	0	1	1.05	27.93	138	1	1.0600000000000001	0.93999999999999995;
    26	2	0	0	0	0	1	1.0149999999999999	29.710000000000001	345	1	1.0600000000000001	0.93999999999999995;
    27	2	71	13	0	0	1	0.96799999999999997	15.35	138	1	1.0600000000000001	0.93999999999999995;
    28	1	17	7	0	0	1	0.96199999999999997	13.619999999999999	138	1	1.0600000000000001	0.93999999999999995;
    29	1	24	4	0	0	1	0.96299999999999997	12.630000000000001	138	1	1.0600000000000001	0.93999999999999995;
    30	1	0	0	0	0	1	0.96799999999999997	18.789999999999999	345	1	1.0600000000000001	0.93999999999999995;
    31	2	43	27	0	0	1	0.96699999999999997	12.75	138	1	1.0600000000000001	0.93999999999999995;
    32	2	59	23	0	0	1	0.96399999999999997	14.800000000000001	138	1	1.0600000000000001	0.93999999999999995;
    33	1	23	9	0	0	1	0.97199999999999998	10.630000000000001	138	1	1.0600000000000001	0.93999999999999995;
    34	2	59	26	0	14	1	0.98599999999999999	11.300000000000001	138	1	1.0600000000000001	0.93999999999999995;
    35	1	33	9	0	0	1	0.98099999999999998	10.869999999999999	138	1	1.0600000000000001	0.93999999999999995;
    36	2	31	17	0	0	1	0.97999999999999998	10.869999999999999	138	1	1.0600000000000001	0.93999999999999995;
    37	1	0	0	0	-25	1	0.99199999999999999	11.77	138	1	1.0600000000000001	0.93999999999999995;
    38	1	0	0	0	0	1	0.96199999999999997	16.91	345	1	1.0600000000000001	0.93999999999999995;
    39	1	27	11	0	0	1	0.96999999999999997	8.4100000000000001	138	1	1.0600000000000001	0.93999999999999995;
    40	2	66	23	0	0	1	0.96999999999999997	7.3499999999999996	138	1	1.0600000000000001	0.93999999999999995;
    41	1	37	10	0	0	1	0.96699999999999997	6.9199999999999999	138	1	1.0600000000000001	0.93999999999999995;
    42	2	96	23	0	0	1	0.98499999999999999	8.5299999999999994	138	1	1.0600000000000001	0.93999999999999995;
    43	1	18	7	0	0	1	0.97799999999999998	11.279999999999999	138	1	1.0600000000000001	0.93999999999999995;
    44	1	16	8	0	10	1	0.98499999999999999	13.82	138	1	1.0600000000000001	0.93999999999999995;
    45	1	53	22	0	10	1	0.98699999999999999	15.67	138	1	1.0600000000000001	0.93999999999999995;
    46	2	28	10	0	10	1	1.0049999999999999	18.489999999999998	138	1	1.0600000000000001	0.93999999999999995;
    47	1	34	0	0	0	1	1.0169999999999999	20.73	138	1	1.0600000000000001	0.93999999999999995;
    48	1	20	11	0	15	1	1.0209999999999999	19.93	138	1	1.0600000000000001	0.93999999999999995;
    49	2	87	30	0	0	1	1.0249999999999999	20.940000000000001	138	1	1.0600000000000001	0.93999999999999995;
    50	1	17	4	0	0	1	1.0009999999999999	18.899999999999999	138	1	1.0600000000000001	0.93999999999999995;
    51	1	17	8	0	0	1	0.96699999999999997	16.280000000000001	138	1	1.0600000000000001	0.93999999999999995;
    52	1	18	5	0	0	1	0.95699999999999996	15.32	138	1	1.0600000000000001	0.93999999999999995;
    53	1	23	11	0	0	1	0.94599999999999995	14.35	138	1	1.0600000000000001	0.93999999999999995;
    54	2	113	32	0	0	1	0.95499999999999996	15.26	138	1	1.0600000000000001	0.93999999999999995;
    55	2	63	22	0	0	1	0.95199999999999996	14.970000000000001	138	1	1.0600000000000001	0.93999999999999995;
    56	2	84	18	0	0	1	0.95399999999999996	15.16	138	1	1.0600000000000001	0.93999999999999995;
    57	1	12	3	0	0	1	0.97099999999999997	16.359999999999999	138	1	1.0600000000000001	0.93999999999999995;
    58	1	12	3	0	0	1	0.95899999999999996	15.51	138	1	1.0600000000000001	0.93999999999999995;
    59	2	277	113	0	0	1	0.98499999999999999	19.370000000000001	138	1	1.0600000000000001	0.93999999999999995;
    60	1	78	3	0	0	1	0.99299999999999999	23.149999999999999	138	1	1.0600000000000001	0.93999999999999995;
    61	2	0	0	0	0	1	0.995	24.039999999999999	138	1	1.0600000000000001	0.93999999999999995;
    62	2	77	14	0	0	1	0.998	23.43	138	1	1.0600000000000001	0.93999999999999995;
    63	1	0	0	0	0	1	0.96899999999999997	22.75	345	1	1.0600000000000001	0.93999999999999995;
    64	1	0	0	0	0	1	0.98399999999999999	24.52	345	1	1.0600000000000001	0.93999999999999995;
    65	2	0	0	0	0	1	1.0049999999999999	27.649999999999999	345	1	1.0600000000000001	0.93999999999999995;
    66	2	39	18	0	0	1	1.05	27.48	138	1	1.0600000000000001	0.93999999999999995;
    67	1	28	7	0	0	1	1.02	24.84	138	1	1.0600000000000001	0.93999999999999995;
    68	1	0	0	0	0	1	1.0029999999999999	27.550000000000001	345	1	1.0600000000000001	0.93999999999999995;
    69	3	0	0	0	0	1	1.0349999999999999	30	138	1	1.0600000000000001	0.93999999999999995;
    70	2	66	20	0	0	1	0.98399999999999999	22.579999999999998	138	1	1.0600000000000001	0.93999999999999995;
    71	1	0	0	0	0	1	0.98699999999999999	22.149999999999999	138	1	1.0600000000000001	0.93999999999999995;
    72	2	12	0	0	0	1	0.97999999999999998	20.98	138	1	1.0600000000000001	0.93999999999999995;
    73	2	6	0	0	0	1	0.99099999999999999	21.940000000000001	138	1	1.0600000000000001	0.93999999999999995;
    74	2	68	27	0	12	1	0.95799999999999996	21.640000000000001	138	1	1.0600000000000001	0.93999999999999995;
    75	1	47	11	0	0	1	0.96699999999999997	22.91	138	1	1.0600000000000001	0.93999999999999995;
    76	2	68	36	0	0	1	0.94299999999999995	21.77	138	1	1.0600000000000001	0.93999999999999995;
    77	2	61	28	0	0	1	1.006	26.719999999999999	138	1	1.0600000000000001	0.93999999999999995;
    78	1	71	26	0	0	1	1.0029999999999999	26.420000000000002	138	1	1.0600000000000001	0.93999999999999995;
    79	1	39	32	0	20	1	1.0089999999999999	26.719999999999999	138	1	1.0600000000000001	0.93999999999999995;
    80	2	130	26	0	0	1	1.04	28.960000000000001	138	1	1.0600000000000001	0.93999999999999995;
    81	1	0	0	0	0	1	0.997	28.100000000000001	345	1	1.0600000000000001	0.93999999999999995;
    82	1	54	27	0	20	1	0.98899999999999999	27.239999999999998	138	1	1.0600000000000001	0.93999999999999995;
    83	1	20	10	0	10	1	0.98499999999999999	28.420000000000002	138	1	1.0600000000000001	0.93999999999999995;
    84	1	11	7	0	0	1	0.97999999999999998	30.949999999999999	138	1	1.0600000000000001	0.93999999999999995;
    85	2	24	15	0	0	1	0.98499999999999999	32.509999999999998	138	1	1.0600000000000001	0.93999999999999995;
    86	1	21	10	0	0	1	0.98699999999999999	31.140000000000001	138	1	1.0600000000000001	0.93999999999999995;
    87	2	0	0	0	0	1	1.0149999999999999	31.399999999999999	161	1	1.0600000000000001	0.93999999999999995;
    88	1	48	10	0	0	1	0.98699999999999999	35.640000000000001	138	1	1.0600000000000001	0.93999999999999995;
    89	2	0	0	0	0	1	1.0049999999999999	39.689999999999998	138	1	1.0600000000000001	0.93999999999999995;
    90	2	163	42	0	0	1	0.98499999999999999	33.289999999999999	138	1	1.0600000000000001	0.93999999999999995;
    91	2	10	0	0	0	1	0.97999999999999998	33.310000000000002	138	1	1.0600000000000001	0.93999999999999995;
    92	2	65	10	0	0	1	0.99299999999999999	33.799999999999997	138	1	1.0600000000000001	0.93999999999999995;
    93	1	12	7	0	0	1	0.98699999999999999	30.789999999999999	138	1	1.0600000000000001	0.93999999999999995;
    94	1	30	16	0	0	1	0.99099999999999999	28.640000000000001	138	1	1.0600000000000001	0.93999999999999995;
    95	1	42	31	0	0	1	0.98099999999999998	27.670000000000002	138	1	1.0600000000000001	0.93999999999999995;
    96	1	38	15	0	0	1	0.99299999999999999	27.510000000000002	138	1	1.0600000000000001	0.93999999999999995;
    97	1	15	9	0	0	1	1.0109999999999999	27.879999999999999	138	1	1.0600000000000001	0.93999999999999995;
    98	1	34	8	0	0	1	1.024	27.399999999999999	138	1	1.0600000000000001	0.93999999999999995;
    99	2	42	0	0	0	1	1.01	27.039999999999999	138	1	1.0600000000000001	0.93999999999999995;
    100	2	37	18	0	0	1	1.0169999999999999	28.030000000000001	138	1	1.0600000000000001	0.93999999999999995;
    101	1	22	15	0	0	1	0.99299999999999999	29.609999999999999	138	1	1.0600000000000001	0.93999999999999995;
    102	1	5	3	0	0	1	0.99099999999999999	32.299999999999997	138	1	1.0600000000000001	0.93999999999999995;
    103	2	23	16	0	0	1	1.0009999999999999	24.440000000000001	138	1	1.0600000000000001	0.93999999999999995;
    104	2	38	25	0	0	1	0.97099999999999997	21.690000000000001	138	1	1.0600000000000001	0.93999999999999995;
    105	2	31	26	0	20	1	0.96499999999999997	20.57	138	1	1.0600000000000001	0.93999999999999995;
    106	1	43	16	0	0	1	0.96199999999999997	20.32	138	1	1.0600000000000001	0.93999999999999995;
    107	2	50	12	0	6	1	0.95199999999999996	17.530000000000001	138	1	1.0600000000000001	0.93999999999999995;
    108	1	2	1	0	0	1	0.96699999999999997	19.379999999999999	138	1	1.0600000000000001	0.93999999999999995;
    109	1	8	3	0	0	1	0.96699999999999997	18.93	138	1	1.0600000000000001	0.93999999999999995;
    110	2	39	30	0	6	1	0.97299999999999998	18.09	138	1	1.0600000000000001	0.93999999999999995;
    111	2	0	0	0	0	1	0.97999999999999998	19.739999999999998	138	1	1.0600000000000001	0.93999999999999995;
    112	2	68	13	0	0	1	0.97499999999999998	14.99	138	1	1.0600000000000001	0.93999999999999995;
    113	2	6	0	0	0	1	0.99299999999999999	13.74	138	1	1.0600000000000001	0.93999999999999995;
    114	1	8	3	0	0	1	0.95999999999999996	14.460000000000001	138	1	1.0600000000000001	0.93999999999999995;
    115	1	22	7	0	0	1	0.95999999999999996	14.460000000000001	138	1	1.0600000000000001	0.93999999999999995;
    116	2	184	0	0	0	1	1.0049999999999999	27.120000000000001	138	1	1.0600000000000001	0.93999999999999995;
    117	1	20	8	0	0	1	0.97399999999999998	10.67	138	1	1.0600000000000001	0.93999999999999995;
    118	1	33	15	0	0	1	0.94899999999999995	21.920000000000002	138	1	1.0600000000000001	0.93999999999999995;
];

mpc.gen = [
    1	0	0	15	-5	0.95499999999999996	100	1	100	0	0	0	0	0	0	0	0	0	0	0	0;
    4	0	0	300	-300	0.998	100	1	100	0	0	0	0	0	0	0	0	0	0	0	0;
    6	0	0	50	-13	0.98999999999999999	100	1	100	0	0	0	0	0	0	0	0	0	0	0	0;
    8	0	0	300	-300	1.0149999999999999	100	1	100	0	0	0	0	0	0	0	0	0	0	0	0;
    10	450	0	200	-147	1.05	100	1	550	0	0	0	0	0	0	0	0	0	0	0	0;
    12	85	0	120	-35	0.98999999999999999	100	1	185	0	0	0	0	0	0	0	0	0	0	0	0;
    15	0	0	30	-10	0.96999999999999997	100	1	100	0	0	0	0	0	0	0	0	0	0	0	0;
    18	0	0	50	-16	0.97299999999999998	100	1	100	0	0	0	0	0	0	0	0	0	0	0	0;
    19	0	0	24	-8	0.96199999999999997	100	1	100	0	0	0	0	0	0	0	0	0	0	0	0;
    24	0	0	300	-300	0.99199999999999999	100	1	100	0	0	0	0	0	0	0	0	0	0	0	0;
    25	220	0	140	-47	1.05	100	1	320	0	0	0	0	0	0	0	0	0	0	0	0;
    26	314	0	1000	-1000	1.0149999999999999	100	1	414	0	0	0	0	0	0	0	0	0	0	0	0;
    27	0	0	300	-300	0.96799999999999997	100	1	100	0	0	0	0	0	0	0	0	0	0	0	0;
    31	7	0	300	-300	0.96699999999999997	100	1	107	0	0	0	0	0	0	0	0	0	0	0	0;
    32	0	0	42	-14	0.96299999999999997	100	1	100	0	0	0	0	0	0	0	0	0	0	0	0;
    34	0	0	24	-8	0.98399999999999999	100	1	100	0	0	0	0	0	0	0	0	0	0	0	0;
    36	0	0	24	-8	0.97999999999999998	100	1	100	0	0	0	0	0	0	0	0	0	0	0	0;
    40	0	0	300	-300	0.96999999999999997	100	1	100	0	0	0	0	0	0	0	0	0	0	0	0;
    42	0	0	300	-300	0.98499999999999999	100	1	100	0	0	0	0	0	0	0	0	0	0	0	0;
    46	19	0	100	-100	1.0049999999999999	100	1	119	0	0	0	0	0	0	0	0	0	0	0	0;
    49	204	0	210	-85	1.0249999999999999	100	1	304	0	0	0	0	0	0	0	0	0	0	0	0;
    54	48	0	300	-300	0.95499999999999996	100	1	148	0	0	0	0	0	0	0	0	0	0	0	0;
    55	0	0	23	-8	0.95199999999999996	100	1	100	0	0	0	0	0	0	0	0	0	0	0	0;
    56	0	0	15	-8	0.95399999999999996	100	1	100	0	0	0	0	0	0	0	0	0	0	0	0;
    59	155	0	180	-60	0.98499999999999999	100	1	255	0	0	0	0	0	0	0	0	0	0	0	0;
    61	160	0	300	-100	0.995	100	1	260	0	0	0	0	0	0	0	0	0	0	0	0;
    62	0	0	20	-20	0.998	100	1	100	0	0	0	0	0	0	0	0	0	0	0	0;
    65	391	0	200	-67	1.0049999999999999	100	1	491	0	0	0	0	0	0	0	0	0	0	0	0;
    66	392	0	200	-67	1.05	100	1	492	0	0	0	0	0	0	0	0	0	0	0	0;
    69	516.39999999999998	0	300	-300	1.0349999999999999	100	1	805.20000000000005	0	0	0	0	0	0	0	0	0	0	0	0;
    70	0	0	32	-10	0.98399999999999999	100	1	100	0	0	0	0	0	0	0	0	0	0	0	0;
    72	0	0	100	-100	0.97999999999999998	100	1	100	0	0	0	0	0	0	0	0	0	0	0	0;
    73	0	0	100	-100	0.99099999999999999	100	1	100	0	0	0	0	0	0	0	0	0	0	0	0;
    74	0	0	9	-6	0.95799999999999996	100	1	100	0	0	0	0	0	0	0	0	0	0	0	0;
    76	0	0	23	-8	0.94299999999999995	100	1	100	0	0	0	0	0	0	0	0	0	0	0	0;
    77	0	0	70	-20	1.006	100	1	100	0	0	0	0	0	0	0	0	0	0	0	0;
    80	477	0	280	-165	1.04	100	1	577	0	0	0	0	0	0	0	0	0	0	0	0;
    85	0	0	23	-8	0.98499999999999999	100	1	100	0	0	0	0	0	0	0	0	0	0	0	0;
    87	4	0	1000	-100	1.0149999999999999	100	1	104	0	0	0	0	0	0	0	0	0	0	0	0;
    89	607	0	300	-210	1.0049999999999999	100	1	707	0	0	0	0	0	0	0	0	0	0	0	0;
    90	0	0	300	-300	0.98499999999999999	100	1	100	0	0	0	0	0	0	0	0	0	0	0	0;
    91	0	0	100	-100	0.97999999999999998	100	1	100	0	0	0	0	0	0	0	0	0	0	0	0;
    92	0	0	9	-3	0.98999999999999999	100	1	100	0	0	0	0	0	0	0	0	0	0	0	0;
    99	0	0	100	-100	1.01	100	1	100	0	0	0	0	0	0	0	0	0	0	0	0;
    100	252	0	155	-50	1.0169999999999999	100	1	352	0	0	0	0	0	0	0	0	0	0	0	0;
    103	40	0	40	-15	1.01	100	1	140	0	0	0	0	0	0	0	0	0	0	0	0;
    104	0	0	23	-8	0.97099999999999997	100	1	100	0	0	0	0	0	0	0	0	0	0	0	0;
    105	0	0	23	-8	0.96499999999999997	100	1	100	0	0	0	0	0	0	0	0	0	0	0	0;
    107	0	0	200	-200	0.95199999999999996	100	1	100	0	0	0	0	0	0	0	0	0	0	0	0;
    110	0	0	23	-8	0.97299999999999998	100	1	100	0	0	0	0	0	0	0	0	0	0	0	0;
    111	36	0	1000	-100	0.97999999999999998	100	1	136	0	0	0	0	0	0	0	0	0	0	0	0;
    112	0	0	1000	-100	0.97499999999999998	100	1	100	0	0	0	0	0	0	0	0	0	0	0	0;
    113	0	0	200	-100	0.99299999999999999	100	1	100	0	0	0	0	0	0	0	0	0	0	0	0;
    116	0	0	1000	-1000	1.0049999999999999	100	1	100	0	0	0	0	0	0	0	0	0	0	0	0;
];

mpc.branch = [
    1	2	0.030300000000000001	0.099900000000000003	0.025399999999999999	9900	0	0	0	0	1	-360	360;
    1	3	0.0129	0.0424	0.01082	9900	0	0	0	0	1	-360	360;
    4	5	0.0017600000000000001	0.0079799999999999992	0.0020999999999999999	9900	0	0	0	0	1	-360	360;
    3	5	0.0241	0.108	0.028400000000000002	9900	0	0	0	0	1	-360	360;
    5	6	0.011900000000000001	0.053999999999999999	0.01426	9900	0	0	0	0	1	-360	360;
    6	7	0.0045900000000000003	0.020799999999999999	0.0054999999999999997	9900	0	0	0	0	1	-360	360;
    8	9	0.0024399999999999999	0.030499999999999999	1.1619999999999999	9900	0	0	0	0	1	-360	360;
    8	5	0	0.026700000000000002	0	9900	0	0	0.98499999999999999	0	1	-360	360;
    9	10	0.0025799999999999998	0.032199999999999999	1.23	9900	0	0	0	0	1	-360	360;
    4	11	0.020899999999999998	0.0688	0.017479999999999999	9900	0	0	0	0	1	-360	360;
    5	11	0.020299999999999999	0.068199999999999997	0.01738	9900	0	0	0	0	1	-360	360;
    11	12	0.0059500000000000004	0.019599999999999999	0.0050200000000000002	9900	0	0	0	0	1	-360	360;
    2	12	0.018700000000000001	0.061600000000000002	0.015720000000000001	9900	0	0	0	0	1	-360	360;
    3	12	0.048399999999999999	0.16	0.040599999999999997	9900	0	0	0	0	1	-360	360;
    7	12	0.0086199999999999992	0.034000000000000002	0.0087399999999999995	9900	0	0	0	0	1	-360	360;
    11	13	0.022249999999999999	0.073099999999999998	0.018759999999999999	9900	0	0	0	0	1	-360	360;
    12	14	0.021499999999999998	0.070699999999999999	0.018159999999999999	9900	0	0	0	0	1	-360	360;
    13	15	0.074399999999999994	0.24440000000000001	0.06268	9900	0	0	0	0	1	-360	360;
    14	15	0.059499999999999997	0.19500000000000001	0.050200000000000002	9900	0	0	0	0	1	-360	360;
    12	16	0.0212	0.083400000000000002	0.021399999999999999	9900	0	0	0	0	1	-360	360;
    15	17	0.0132	0.043700000000000003	0.044400000000000002	9900	0	0	0	0	1	-360	360;
    16	17	0.045400000000000003	0.18010000000000001	0.046600000000000003	9900	0	0	0	0	1	-360	360;
    17	18	0.0123	0.050500000000000003	0.01298	9900	0	0	0	0	1	-360	360;
    18	19	0.01119	0.049299999999999997	0.01142	9900	0	0	0	0	1	-360	360;
    19	20	0.0252	0.11700000000000001	0.0298	9900	0	0	0	0	1	-360	360;
    15	19	0.012	0.039399999999999998	0.0101	9900	0	0	0	0	1	-360	360;
    20	21	0.0183	0.084900000000000003	0.021600000000000001	9900	0	0	0	0	1	-360	360;
    21	22	0.020899999999999998	0.097000000000000003	0.0246	9900	0	0	0	0	1	-360	360;
    22	23	0.034200000000000001	0.159	0.040399999999999998	9900	0	0	0	0	1	-360	360;
    23	24	0.0135	0.049200000000000001	0.049799999999999997	9900	0	0	0	0	1	-360	360;
    23	25	0.015599999999999999	0.080000000000000002	0.086400000000000005	9900	0	0	0	0	1	-360	360;
    26	25	0	0.038199999999999998	0	9900	0	0	0.95999999999999996	0	1	-360	360;
    25	27	0.031800000000000002	0.16300000000000001	0.1764	9900	0	0	0	0	1	-360	360;
    27	28	0.019130000000000001	0.085500000000000007	0.021600000000000001	9900	0	0	0	0	1	-360	360;
    28	29	0.023699999999999999	0.094299999999999995	0.023800000000000002	9900	0	0	0	0	1	-360	360;
    30	17	0	0.038800000000000001	0	9900	0	0	0.95999999999999996	0	1	-360	360;
    8	30	0.0043099999999999996	0.0504	0.51400000000000001	9900	0	0	0	0	1	-360	360;
    26	30	0.0079900000000000006	0.085999999999999993	0.90800000000000003	9900	0	0	0	0	1	-360	360;
    17	31	0.047399999999999998	0.15629999999999999	0.039899999999999998	9900	0	0	0	0	1	-360	360;
    29	31	0.010800000000000001	0.033099999999999997	0.0083000000000000001	9900	0	0	0	0	1	-360	360;
    23	32	0.031699999999999999	0.1153	0.1173	9900	0	0	0	0	1	-360	360;
    31	32	0.0298	0.098500000000000004	0.025100000000000001	9900	0	0	0	0	1	-360	360;
    27	32	0.0229	0.075499999999999998	0.019259999999999999	9900	0	0	0	0	1	-360	360;
    15	33	0.037999999999999999	0.1244	0.031940000000000003	9900	0	0	0	0	1	-360	360;
    19	34	0.075200000000000003	0.247	0.063200000000000006	9900	0	0	0	0	1	-360	360;
    35	36	0.0022399999999999998	0.010200000000000001	0.0026800000000000001	9900	0	0	0	0	1	-360	360;
    35	37	0.010999999999999999	0.049700000000000001	0.013180000000000001	9900	0	0	0	0	1	-360	360;
    33	37	0.041500000000000002	0.14199999999999999	0.036600000000000001	9900	0	0	0	0	1	-360	360;
    34	36	0.0087100000000000007	0.026800000000000001	0.0056800000000000002	9900	0	0	0	0	1	-360	360;
    34	37	0.0025600000000000002	0.0094000000000000004	0.0098399999999999998	9900	0	0	0	0	1	-360	360;
    38	37	0	0.037499999999999999	0	9900	0	0	0.93500000000000005	0	1	-360	360;
    37	39	0.032099999999999997	0.106	0.027	9900	0	0	0	0	1	-360	360;
    37	40	0.059299999999999999	0.16800000000000001	0.042000000000000003	9900	0	0	0	0	1	-360	360;
    30	38	0.00464	0.053999999999999999	0.42199999999999999	9900	0	0	0	0	1	-360	360;
    39	40	0.0184	0.060499999999999998	0.015520000000000001	9900	0	0	0	0	1	-360	360;
    40	41	0.014500000000000001	0.0487	0.01222	9900	0	0	0	0	1	-360	360;
    40	42	0.055500000000000001	0.183	0.046600000000000003	9900	0	0	0	0	1	-360	360;
    41	42	0.041000000000000002	0.13500000000000001	0.0344	9900	0	0	0	0	1	-360	360;
    43	44	0.0608	0.24540000000000001	0.060679999999999998	9900	0	0	0	0	1	-360	360;
    34	43	0.041300000000000003	0.1681	0.042259999999999999	9900	0	0	0	0	1	-360	360;
    44	45	0.0224	0.0901	0.0224	9900	0	0	0	0	1	-360	360;
    45	46	0.040000000000000001	0.1356	0.0332	9900	0	0	0	0	1	-360	360;
    46	47	0.037999999999999999	0.127	0.031600000000000003	9900	0	0	0	0	1	-360	360;
    46	48	0.060100000000000001	0.189	0.047199999999999999	9900	0	0	0	0	1	-360	360;
    47	49	0.019099999999999999	0.0625	0.016039999999999999	9900	0	0	0	0	1	-360	360;
    42	49	0.071499999999999994	0.32300000000000001	0.085999999999999993	9900	0	0	0	0	1	-360	360;
    42	49	0.071499999999999994	0.32300000000000001	0.085999999999999993	9900	0	0	0	0	1	-360	360;
    45	49	0.068400000000000002	0.186	0.044400000000000002	9900	0	0	0	0	1	-360	360;
    48	49	0.017899999999999999	0.050500000000000003	0.012579999999999999	9900	0	0	0	0	1	-360	360;
    49	50	0.026700000000000002	0.075200000000000003	0.01874	9900	0	0	0	0	1	-360	360;
    49	51	0.048599999999999997	0.13700000000000001	0.034200000000000001	9900	0	0	0	0	1	-360	360;
    51	52	0.020299999999999999	0.058799999999999998	0.01396	9900	0	0	0	0	1	-360	360;
    52	53	0.040500000000000001	0.16350000000000001	0.040579999999999998	9900	0	0	0	0	1	-360	360;
    53	54	0.0263	0.122	0.031	9900	0	0	0	0	1	-360	360;
    49	54	0.072999999999999995	0.28899999999999998	0.073800000000000004	9900	0	0	0	0	1	-360	360;
    49	54	0.086900000000000005	0.29099999999999998	0.072999999999999995	9900	0	0	0	0	1	-360	360;
    54	55	0.016899999999999998	0.070699999999999999	0.020199999999999999	9900	0	0	0	0	1	-360	360;
    54	56	0.0027499999999999998	0.0095499999999999995	0.0073200000000000001	9900	0	0	0	0	1	-360	360;
    55	56	0.0048799999999999998	0.015100000000000001	0.0037399999999999998	9900	0	0	0	0	1	-360	360;
    56	57	0.034299999999999997	0.096600000000000005	0.024199999999999999	9900	0	0	0	0	1	-360	360;
    50	57	0.047399999999999998	0.13400000000000001	0.0332	9900	0	0	0	0	1	-360	360;
    56	58	0.034299999999999997	0.096600000000000005	0.024199999999999999	9900	0	0	0	0	1	-360	360;
    51	58	0.025499999999999998	0.071900000000000006	0.01788	9900	0	0	0	0	1	-360	360;
    54	59	0.050299999999999997	0.2293	0.059799999999999999	9900	0	0	0	0	1	-360	360;
    56	59	0.082500000000000004	0.251	0.056899999999999999	9900	0	0	0	0	1	-360	360;
    56	59	0.080299999999999996	0.23899999999999999	0.053600000000000002	9900	0	0	0	0	1	-360	360;
    55	59	0.047390000000000002	0.21579999999999999	0.056460000000000003	9900	0	0	0	0	1	-360	360;
    59	60	0.031699999999999999	0.14499999999999999	0.037600000000000001	9900	0	0	0	0	1	-360	360;
    59	61	0.032800000000000003	0.14999999999999999	0.038800000000000001	9900	0	0	0	0	1	-360	360;
    60	61	0.00264	0.0135	0.01456	9900	0	0	0	0	1	-360	360;
    60	62	0.0123	0.056099999999999997	0.01468	9900	0	0	0	0	1	-360	360;
    61	62	0.0082400000000000008	0.037600000000000001	0.0097999999999999997	9900	0	0	0	0	1	-360	360;
    63	59	0	0.038600000000000002	0	9900	0	0	0.95999999999999996	0	1	-360	360;
    63	64	0.00172	0.02	0.216	9900	0	0	0	0	1	-360	360;
    64	61	0	0.026800000000000001	0	9900	0	0	0.98499999999999999	0	1	-360	360;
    38	65	0.0090100000000000006	0.098599999999999993	1.046	9900	0	0	0	0	1	-360	360;
    64	65	0.0026900000000000001	0.030200000000000001	0.38	9900	0	0	0	0	1	-360	360;
    49	66	0.017999999999999999	0.091899999999999996	0.024799999999999999	9900	0	0	0	0	1	-360	360;
    49	66	0.017999999999999999	0.091899999999999996	0.024799999999999999	9900	0	0	0	0	1	-360	360;
    62	66	0.0482	0.218	0.057799999999999997	9900	0	0	0	0	1	-360	360;
    62	67	0.0258	0.11700000000000001	0.031	9900	0	0	0	0	1	-360	360;
    65	66	0	0.036999999999999998	0	9900	0	0	0.93500000000000005	0	1	-360	360;
    66	67	0.0224	0.10150000000000001	0.02682	9900	0	0	0	0	1	-360	360;
    65	68	0.0013799999999999999	0.016	0.63800000000000001	9900	0	0	0	0	1	-360	360;
    47	69	0.084400000000000003	0.27779999999999999	0.070919999999999997	9900	0	0	0	0	1	-360	360;
    49	69	0.098500000000000004	0.32400000000000001	0.082799999999999999	9900	0	0	0	0	1	-360	360;
    68	69	0	0.036999999999999998	0	9900	0	0	0.93500000000000005	0	1	-360	360;
    69	70	0.029999999999999999	0.127	0.122	9900	0	0	0	0	1	-360	360;
    24	70	0.0022100000000000002	0.41149999999999998	0.10198	9900	0	0	0	0	1	-360	360;
    70	71	0.0088199999999999997	0.035499999999999997	0.0087799999999999996	9900	0	0	0	0	1	-360	360;
    24	72	0.048800000000000003	0.19600000000000001	0.048800000000000003	9900	0	0	0	0	1	-360	360;
    71	72	0.044600000000000001	0.17999999999999999	0.04444	9900	0	0	0	0	1	-360	360;
    71	73	0.0086599999999999993	0.045400000000000003	0.011780000000000001	9900	0	0	0	0	1	-360	360;
    70	74	0.040099999999999997	0.1323	0.033680000000000002	9900	0	0	0	0	1	-360	360;
    70	75	0.042799999999999998	0.14099999999999999	0.035999999999999997	9900	0	0	0	0	1	-360	360;
    69	75	0.040500000000000001	0.122	0.124	9900	0	0	0	0	1	-360	360;
    74	75	0.0123	0.040599999999999997	0.01034	9900	0	0	0	0	1	-360	360;
    76	77	0.044400000000000002	0.14799999999999999	0.036799999999999999	9900	0	0	0	0	1	-360	360;
    69	77	0.0309	0.10100000000000001	0.1038	9900	0	0	0	0	1	-360	360;
    75	77	0.060100000000000001	0.19989999999999999	0.049779999999999998	9900	0	0	0	0	1	-360	360;
    77	78	0.0037599999999999999	0.0124	0.01264	9900	0	0	0	0	1	-360	360;
    78	79	0.0054599999999999996	0.024400000000000002	0.0064799999999999996	9900	0	0	0	0	1	-360	360;
    77	80	0.017000000000000001	0.048500000000000001	0.047199999999999999	9900	0	0	0	0	1	-360	360;
    77	80	0.029399999999999999	0.105	0.022800000000000001	9900	0	0	0	0	1	-360	360;
    79	80	0.015599999999999999	0.070400000000000004	0.018700000000000001	9900	0	0	0	0	1	-360	360;
    68	81	0.00175	0.020199999999999999	0.80800000000000005	9900	0	0	0	0	1	-360	360;
    81	80	0	0.036999999999999998	0	9900	0	0	0.93500000000000005	0	1	-360	360;
    77	82	0.0298	0.085300000000000001	0.081739999999999993	9900	0	0	0	0	1	-360	360;
    82	83	0.0112	0.036650000000000002	0.037960000000000001	9900	0	0	0	0	1	-360	360;
    83	84	0.0625	0.13200000000000001	0.0258	9900	0	0	0	0	1	-360	360;
    83	85	0.042999999999999997	0.14799999999999999	0.034799999999999998	9900	0	0	0	0	1	-360	360;
    84	85	0.030200000000000001	0.064100000000000004	0.01234	9900	0	0	0	0	1	-360	360;
    85	86	0.035000000000000003	0.123	0.0276	9900	0	0	0	0	1	-360	360;
    86	87	0.02828	0.2074	0.044499999999999998	9900	0	0	0	0	1	-360	360;
    85	88	0.02	0.10199999999999999	0.0276	9900	0	0	0	0	1	-360	360;
    85	89	0.023900000000000001	0.17299999999999999	0.047	9900	0	0	0	0	1	-360	360;
    88	89	0.013899999999999999	0.071199999999999999	0.01934	9900	0	0	0	0	1	-360	360;
    89	90	0.051799999999999999	0.188	0.0528	9900	0	0	0	0	1	-360	360;
    89	90	0.023800000000000002	0.099699999999999997	0.106	9900	0	0	0	0	1	-360	360;
    90	91	0.025399999999999999	0.083599999999999994	0.021399999999999999	9900	0	0	0	0	1	-360	360;
    89	92	0.0099000000000000008	0.050500000000000003	0.054800000000000001	9900	0	0	0	0	1	-360	360;
    89	92	0.039300000000000002	0.15809999999999999	0.041399999999999999	9900	0	0	0	0	1	-360	360;
    91	92	0.038699999999999998	0.12720000000000001	0.032680000000000001	9900	0	0	0	0	1	-360	360;
    92	93	0.0258	0.0848	0.0218	9900	0	0	0	0	1	-360	360;
    92	94	0.048099999999999997	0.158	0.040599999999999997	9900	0	0	0	0	1	-360	360;
    93	94	0.0223	0.073200000000000001	0.018759999999999999	9900	0	0	0	0	1	-360	360;
    94	95	0.0132	0.043400000000000001	0.0111	9900	0	0	0	0	1	-360	360;
    80	96	0.0356	0.182	0.049399999999999999	9900	0	0	0	0	1	-360	360;
    82	96	0.016199999999999999	0.052999999999999999	0.054399999999999997	9900	0	0	0	0	1	-360	360;
    94	96	0.0269	0.086900000000000005	0.023	9900	0	0	0	0	1	-360	360;
    80	97	0.0183	0.093399999999999997	0.025399999999999999	9900	0	0	0	0	1	-360	360;
    80	98	0.023800000000000002	0.108	0.0286	9900	0	0	0	0	1	-360	360;
    80	99	0.045400000000000003	0.20599999999999999	0.054600000000000003	9900	0	0	0	0	1	-360	360;
    92	100	0.064799999999999996	0.29499999999999998	0.047199999999999999	9900	0	0	0	0	1	-360	360;
    94	100	0.0178	0.058000000000000003	0.060400000000000002	9900	0	0	0	0	1	-360	360;
    95	96	0.017100000000000001	0.054699999999999999	0.01474	9900	0	0	0	0	1	-360	360;
    96	97	0.017299999999999999	0.088499999999999995	0.024	9900	0	0	0	0	1	-360	360;
    98	100	0.039699999999999999	0.17899999999999999	0.047600000000000003	9900	0	0	0	0	1	-360	360;
    99	100	0.017999999999999999	0.081299999999999997	0.021600000000000001	9900	0	0	0	0	1	-360	360;
    100	101	0.027699999999999999	0.12620000000000001	0.032800000000000003	9900	0	0	0	0	1	-360	360;
    92	102	0.0123	0.055899999999999998	0.01464	9900	0	0	0	0	1	-360	360;
    101	102	0.0246	0.112	0.029399999999999999	9900	0	0	0	0	1	-360	360;
    100	103	0.016	0.052499999999999998	0.053600000000000002	9900	0	0	0	0	1	-360	360;
    100	104	0.045100000000000001	0.20399999999999999	0.054100000000000002	9900	0	0	0	0	1	-360	360;
    103	104	0.046600000000000003	0.15840000000000001	0.0407	9900	0	0	0	0	1	-360	360;
    103	105	0.053499999999999999	0.16250000000000001	0.040800000000000003	9900	0	0	0	0	1	-360	360;
    100	106	0.060499999999999998	0.22900000000000001	0.062	9900	0	0	0	0	1	-360	360;
    104	105	0.0099399999999999992	0.0378	0.0098600000000000007	9900	0	0	0	0	1	-360	360;
    105	106	0.014	0.054699999999999999	0.01434	9900	0	0	0	0	1	-360	360;
    105	107	0.052999999999999999	0.183	0.047199999999999999	9900	0	0	0	0	1	-360	360;
    105	108	0.026100000000000002	0.070300000000000001	0.018440000000000002	9900	0	0	0	0	1	-360	360;
    106	107	0.052999999999999999	0.183	0.047199999999999999	9900	0	0	0	0	1	-360	360;
    108	109	0.010500000000000001	0.028799999999999999	0.0076	9900	0	0	0	0	1	-360	360;
    103	110	0.039059999999999997	0.18129999999999999	0.046100000000000002	9900	0	0	0	0	1	-360	360;
    109	110	0.027799999999999998	0.076200000000000004	0.020199999999999999	9900	0	0	0	0	1	-360	360;
    110	111	0.021999999999999999	0.075499999999999998	0.02	9900	0	0	0	0	1	-360	360;
    110	112	0.0247	0.064000000000000001	0.062	9900	0	0	0	0	1	-360	360;
    17	113	0.0091299999999999992	0.030099999999999998	0.0076800000000000002	9900	0	0	0	0	1	-360	360;
    32	113	0.061499999999999999	0.20300000000000001	0.051799999999999999	9900	0	0	0	0	1	-360	360;
    32	114	0.0135	0.061199999999999997	0.016279999999999999	9900	0	0	0	0	1	-360	360;
    27	115	0.016400000000000001	0.074099999999999999	0.019720000000000001	9900	0	0	0	0	1	-360	360;
    114	115	0.0023	0.0104	0.0027599999999999999	9900	0	0	0	0	1	-360	360;
    68	116	0.00034000000000000002	0.0040499999999999998	0.16400000000000001	9900	0	0	0	0	1	-360	360;
    12	117	0.032899999999999999	0.14000000000000001	0.035799999999999998	9900	0	0	0	0	1	-360	360;
    75	118	0.014500000000000001	0.048099999999999997	0.011979999999999999	9900	0	0	0	0	1	-360	360;
    76	118	0.016400000000000001	0.054399999999999997	0.013559999999999999	9900	0	0	0	0	1	-360	360;
];

mpc.gencost = [
    2	0	0	3	0.01	40	0;
    2	0	0	3	0.01	40	0;
    2	0	0	3	0.01	40	0;
    2	0	0	3	0.01	40	0;
    2	0	0	3	0.022222200000000001	20	0;
    2	0	0	3	0.117647	20	0;
    2	0	0	3	0.01	40	0;
    2	0	0	3	0.01	40	0;
    2	0	0	3	0.01	40	0;
    2	0	0	3	0.01	40	0;
    2	0	0	3	0.045454500000000002	20	0;
    2	0	0	3	0.031847100000000003	20	0;
    2	0	0	3	0.01	40	0;
    2	0	0	3	1.4285699999999999	20	0;
    2	0	0	3	0.01	40	0;
    2	0	0	3	0.01	40	0;
    2	0	0	3	0.01	40	0;
    2	0	0	3	0.01	40	0;
    2	0	0	3	0.01	40	0;
    2	0	0	3	0.52631600000000001	20	0;
    2	0	0	3	0.049019600000000003	20	0;
    2	0	0	3	0.20833299999999999	20	0;
    2	0	0	3	0.01	40	0;
    2	0	0	3	0.01	40	0;
    2	0	0	3	0.064516100000000007	20	0;
    2	0	0	3	0.0625	20	0;
    2	0	0	3	0.01	40	0;
    2	0	0	3	0.025575400000000002	20	0;
    2	0	0	3	0.0255102	20	0;
    2	0	0	3	0.019364800000000001	20	0;
    2	0	0	3	0.01	40	0;
    2	0	0	3	0.01	40	0;
    2	0	0	3	0.01	40	0;
    2	0	0	3	0.01	40	0;
    2	0	0	3	0.01	40	0;
    2	0	0	3	0.01	40	0;
    2	0	0	3	0.020964400000000001	20	0;
    2	0	0	3	0.01	40	0;
    2	0	0	3	2.5	20	0;
    2	0	0	3	0.0164745	20	0;
    2	0	0	3	0.01	40	0;
    2	0	0	3	0.01	40	0;
    2	0	0	3	0.01	40	0;
    2	0	0	3	0.01	40	0;
    2	0	0	3	0.039682500000000002	20	0;
    2	0	0	3	0.25	20	0;
    2	0	0	3	0.01	40	0;
    2	0	0	3	0.01	40	0;
    2	0	0	3	0.01	40	0;
    2	0	0	3	0.01	40	0;
    2	0	0	3	0.27777800000000002	20	0;
    2	0	0	3	0.01	40	0;
    2	0	0	3	0.01	40	0;
    2	0	0	3	0.01	40	0;
];
